Geom Title=geometry_01
Program Version=6.60
Viewing Rectangle= 448299.389998122 , 449938.871790949 , 2692317.22053341 , 2690923.10927795 

Storage Area=Perimeter 1     ,,
Storage Area Surface Line= 25 
448963.1251880922691280.23231198                
448836.8231022292691215.61591173                
448597.2035809182691261.02869061                
448373.9118977962691594.21671957                
448432.1364641012691838.20537838                
448509.7692191752691974.06269975                
448750.9852795822692093.28443076                
448878.524805775 2692071.1036436                
448947.8397656622692065.55844681                
449028.2451191312692126.55561151                
  449108.65047262692176.46238263                
449208.4640148382692206.96096498                
449277.7789747252692198.64316979                
449387.2134333952692248.46676296                
449582.2430913822692264.46922879                
449748.4275523592692229.83490174                
449843.2226915012692059.37555238                
449793.3487332152691873.69921093                
449642.8747314432691742.05166602                
449518.9950351332691594.21671957                
449347.0939346122691541.53735006                
449269.4611795392691408.45262707                
449214.2564254782691302.16588529                
449100.1647614582691314.98236569                
448963.1251880922691280.23231198                
Storage Area Type= 1 
Storage Area Area=
Storage Area Min Elev=
Storage Area Is2D=-1
Storage Area Point Generation Data=,,50,50
Storage Area 2D Points= 1095 
449448.9118977962692239.46922879449498.9118977962692239.46922879
449548.9118977962692239.46922879449598.9118977962692239.46922879
449198.9118977962692189.46922879449248.9118977962692189.46922879
449298.9118977962692189.46922879449348.9118977962692189.46922879
449398.9118977962692189.46922879449448.9118977962692189.46922879
449498.9118977962692189.46922879449548.9118977962692189.46922879
449098.9118977962692139.46922879449148.9118977962692139.46922879
449198.9118977962692139.46922879449248.9118977962692139.46922879
449298.9118977962692139.46922879449348.9118977962692139.46922879
449398.9118977962692139.46922879449448.9118977962692139.46922879
449498.9118977962692139.46922879449048.9118977962692089.46922879
449098.9118977962692089.46922879449148.9118977962692089.46922879
449198.9118977962692089.46922879449248.9118977962692089.46922879
449298.9118977962692089.46922879449348.9118977962692089.46922879
449398.9118977962692089.46922879449448.9118977962692089.46922879
449798.9118977962692089.46922879448698.9118977962692039.46922879
448748.9118977962692039.46922879448798.9118977962692039.46922879
448848.9118977962692039.46922879448898.9118977962692039.46922879
448948.9118977962692039.46922879448998.9118977962692039.46922879
449048.9118977962692039.46922879449098.9118977962692039.46922879
449148.9118977962692039.46922879449198.9118977962692039.46922879
449248.9118977962692039.46922879449298.9118977962692039.46922879
449348.9118977962692039.46922879449748.9118977962692039.46922879
449798.9118977962692039.46922879448598.9118977962691989.46922879
448648.9118977962691989.46922879448698.9118977962691989.46922879
448748.9118977962691989.46922879448798.9118977962691989.46922879
448848.9118977962691989.46922879448898.9118977962691989.46922879
448948.9118977962691989.46922879448998.9118977962691989.46922879
449048.9118977962691989.46922879449098.9118977962691989.46922879
449148.9118977962691989.46922879449198.9118977962691989.46922879
449248.9118977962691989.46922879449648.9118977962691989.46922879
449698.9118977962691989.46922879449748.9118977962691989.46922879
449798.9118977962691989.46922879448548.9118977962691939.46922879
448598.9118977962691939.46922879448648.9118977962691939.46922879
448698.9118977962691939.46922879448748.9118977962691939.46922879
448798.9118977962691939.46922879448848.9118977962691939.46922879
448898.9118977962691939.46922879448948.9118977962691939.46922879
448998.9118977962691939.46922879449048.9118977962691939.46922879
449098.9118977962691939.46922879449148.9118977962691939.46922879
449598.9118977962691939.46922879449648.9118977962691939.46922879
449698.9118977962691939.46922879449748.9118977962691939.46922879
448498.9118977962691889.46922879448548.9118977962691889.46922879
448598.9118977962691889.46922879448648.9118977962691889.46922879
448698.9118977962691889.46922879448748.9118977962691889.46922879
448798.9118977962691889.46922879448848.9118977962691889.46922879
448898.9118977962691889.46922879448948.9118977962691889.46922879
448998.9118977962691889.46922879449048.9118977962691889.46922879
449098.9118977962691889.46922879449548.9118977962691889.46922879
449598.9118977962691889.46922879449648.9118977962691889.46922879
449698.9118977962691889.46922879449748.9118977962691889.46922879
448448.9118977962691839.46922879448498.9118977962691839.46922879
448548.9118977962691839.46922879448598.9118977962691839.46922879
448648.9118977962691839.46922879448698.9118977962691839.46922879
448748.9118977962691839.46922879448798.9118977962691839.46922879
448848.9118977962691839.46922879448898.9118977962691839.46922879
448948.9118977962691839.46922879448998.9118977962691839.46922879
449448.9118977962691839.46922879449498.9118977962691839.46922879
449548.9118977962691839.46922879449598.9118977962691839.46922879
449648.9118977962691839.46922879449698.9118977962691839.46922879
448448.9118977962691789.46922879448498.9118977962691789.46922879
448548.9118977962691789.46922879448598.9118977962691789.46922879
448648.9118977962691789.46922879448698.9118977962691789.46922879
448748.9118977962691789.46922879448798.9118977962691789.46922879
448848.9118977962691789.46922879448898.9118977962691789.46922879
448948.9118977962691789.46922879449348.9118977962691789.46922879
449398.9118977962691789.46922879449448.9118977962691789.46922879
449498.9118977962691789.46922879449548.9118977962691789.46922879
449598.9118977962691789.46922879449648.9118977962691789.46922879
448448.9118977962691739.46922879448498.9118977962691739.46922879
448548.9118977962691739.46922879448598.9118977962691739.46922879
448648.9118977962691739.46922879448698.9118977962691739.46922879
448748.9118977962691739.46922879448798.9118977962691739.46922879
448848.9118977962691739.46922879448898.9118977962691739.46922879
449248.9118977962691739.46922879449298.9118977962691739.46922879
449348.9118977962691739.46922879449398.9118977962691739.46922879
449448.9118977962691739.46922879449498.9118977962691739.46922879
449548.9118977962691739.46922879449598.9118977962691739.46922879
448448.9118977962691689.46922879448498.9118977962691689.46922879
448548.9118977962691689.46922879448598.9118977962691689.46922879
448648.9118977962691689.46922879448698.9118977962691689.46922879
448748.9118977962691689.46922879448798.9118977962691689.46922879
448848.9118977962691689.46922879449198.9118977962691689.46922879
449248.9118977962691689.46922879449298.9118977962691689.46922879
449348.9118977962691689.46922879449398.9118977962691689.46922879
449448.9118977962691689.46922879449498.9118977962691689.46922879
449548.9118977962691689.46922879448398.9118977962691639.46922879
448448.9118977962691639.46922879448498.9118977962691639.46922879
448548.9118977962691639.46922879448598.9118977962691639.46922879
448648.9118977962691639.46922879448698.9118977962691639.46922879
448748.9118977962691639.46922879448798.9118977962691639.46922879
448848.9118977962691639.46922879449198.9118977962691639.46922879
449248.9118977962691639.46922879449298.9118977962691639.46922879
449348.9118977962691639.46922879449398.9118977962691639.46922879
449448.9118977962691639.46922879449498.9118977962691639.46922879
448398.9118977962691589.46922879448448.9118977962691589.46922879
448498.9118977962691589.46922879448548.9118977962691589.46922879
448598.9118977962691589.46922879448648.9118977962691589.46922879
448698.9118977962691589.46922879448748.9118977962691589.46922879
448798.9118977962691589.46922879449248.9118977962691589.46922879
449298.9118977962691589.46922879449348.9118977962691589.46922879
449398.9118977962691589.46922879449448.9118977962691589.46922879
448448.9118977962691539.46922879448498.9118977962691539.46922879
448548.9118977962691539.46922879448598.9118977962691539.46922879
448648.9118977962691539.46922879448698.9118977962691539.46922879
448748.9118977962691539.46922879449298.9118977962691539.46922879
448498.9118977962691489.46922879448548.9118977962691489.46922879
448598.9118977962691489.46922879448648.9118977962691489.46922879
448698.9118977962691489.46922879448998.9118977962691489.46922879
449048.9118977962691489.46922879448498.9118977962691439.46922879
448548.9118977962691439.46922879448598.9118977962691439.46922879
448648.9118977962691439.46922879448698.9118977962691439.46922879
448948.9118977962691439.46922879448998.9118977962691439.46922879
449048.9118977962691439.46922879449098.9118977962691439.46922879
448548.9118977962691389.46922879448598.9118977962691389.46922879
448648.9118977962691389.46922879448948.9118977962691389.46922879
448998.9118977962691389.46922879449048.9118977962691389.46922879
449098.9118977962691389.46922879448598.9118977962691339.46922879
448648.9118977962691339.46922879448898.9118977962691339.46922879
448948.9118977962691339.46922879448998.9118977962691339.46922879
449048.9118977962691339.46922879449098.9118977962691339.46922879
449148.9118977962691339.46922879449198.9118977962691339.46922879
448598.9118977962691289.46922879448648.9118977962691289.46922879
448898.9118977962691289.46922879448948.9118977962691289.46922879
448798.9118977962691239.46922879448848.9118977962691239.46922879
448750.8466754982691279.26234957448748.1037699462691269.66510163
 448753.58958105 2691288.8595975448756.3324866022691298.45684544
448759.0753921552691308.05409337448761.8182977072691317.65134131
448764.5612032592691327.24858924448767.3041088112691336.84583718
448770.0470143642691346.44308511448772.7899199162691356.04033305
448775.5328254682691365.63758098 448778.275731022691375.23482892
448781.0186365722691384.83207685448783.7615421252691394.42932479
448786.5044476772691404.02657272448789.3154844092691413.65196322
448794.8293797842691424.02368287448801.1594934612691431.74121872
448807.4896071372691439.45875458448813.8197208142691447.17629043
448820.1498344912691454.89382628448826.4799481672691462.61136213
448832.8100618442691470.32889798448839.1401755212691478.04643384
448845.4702891972691485.76396969448851.8004028742691493.48150554
448858.1305165512691501.19904139448864.4606302272691508.91657725
448870.790743904 2691516.6341131 448877.120857582691524.35164895
448883.450971257 2691532.0691848448889.7810849342691539.78672066
 448896.111198612691547.50425651448902.4413122872691555.22179236
448908.7714259642691562.93932821 448915.101539642691570.65686407
448921.4316533172691578.37439992448927.7617669942691586.09193577
 448934.091880672691593.80947162448940.4219943472691601.52700747
448946.7521080242691609.24454333  448953.08222172691616.96207918
448959.4123353772691624.67961503448965.7424490542691632.39715088
 448972.072562732691640.11468674448978.4026764072691647.83222259
448984.7327900832691655.54975844 448991.119993462691663.27059274
448998.5368087472691670.95124153449005.9725449372691677.61010976
449013.4082811272691684.26897799449020.8440173172691690.92784622
449028.2797535072691697.58671445449035.7154896972691704.24558268
449043.1512258872691710.90445091449050.5869620772691717.56331914
449058.0226982672691724.22218737449065.458434457 2691730.8810556
449072.8941706472691737.53992383449080.3299068372691744.19879206
449087.7656430272691750.85766029449095.2013792172691757.51652852
449102.6371154072691764.17539675449110.0728515972691770.83426498
449117.5085877872691777.49313321449124.9443239772691784.15200144
449132.3800601682691790.81086967449139.815796358 2691797.4697379
449147.2515325482691804.12860613449154.6872687382691810.78747436
449162.1230049282691817.44634259449169.5587411182691824.10521082
449177.0993570882691830.75194629449186.0460862282691837.04291722
 449194.751397572691841.92638456449203.456708911 2691846.8098519
449212.1620202522691851.69331923449220.8673315942691856.57678657
449229.5726429362691861.46025391449238.2779542772691866.34372125
449246.9832656182691871.22718859 449255.688576962691876.11065592
449264.3938883012691880.99412326449273.099199642 2691885.8775906
449281.8045109842691890.76105794449290.5154249222691895.64286141
449299.6245608492691900.39363147449308.6077405072691904.74485912
449317.5909201642691909.09608677449326.5740998222691913.44731441
449335.5572794792691917.79854206449344.5404591372691922.14976971
449353.5236387942691926.50099735449362.506818452  2691930.852225
449371.4899981092691935.20345265449380.4731777672691939.55468029
449389.4563574242691943.90590794449398.4395370822691948.25713559
449407.4227167392691952.60836323449416.4058963962691956.95959088
449425.3890760542691961.31081853449434.3722557122691965.66204617
449443.3554353692691970.01327382449452.3386150272691974.36450146
449461.3217946842691978.71572911449469.8819060372691983.18034814
449477.3945524892691988.27064079 449485.156108142691994.54670267
 449492.917663792692000.82276454449500.6792194412692007.09882642
449508.440775091 2692013.3748883449516.2023307422692019.65095017
449523.9638863932692025.92701205449531.7254420432692032.20307393
449539.486997694 2692038.4791358449547.2485533442692044.75519768
449555.0101089952692051.03125955449562.7716646462692057.30732143
449570.5332202962692063.58338331449578.2947759472692069.85944518
449586.2466197562692076.10878169449594.7597022292692082.06024829
449603.1733453192692087.43065878449611.5869884082692092.80106926
449620.0006314982692098.17147974449628.4142745872692103.54189022
449636.8279176772692108.91230071449645.2415607672692114.28271119
449653.6552038562692119.65312167449662.0688469462692125.02353215
449670.6702208142692130.33189934449681.3227928192692134.51915408
449691.0807312612692136.61994825449700.8386697032692138.72074243
449710.596608146 2692140.8215366449720.3545465882692142.92233077
 449730.112485032692145.02312494449739.8704234722692147.12391911
449749.6283619142692149.22471328449759.3863003562692151.32550746
449769.1442387982692153.42630163 449778.90217724 2692155.5270958
448760.4616940452691276.51436515448757.7187884922691266.91711722
448763.2045995972691286.11161309448765.9475051492691295.70886102
448768.6904107012691305.30610896448771.4333162532691314.90335689
448774.1762218062691324.50060483448776.9191273582691334.09785276
 448779.66203291 2691343.6951007448782.4049384622691353.29234863
448785.1478440152691362.88959657448787.890749567 2691372.4868445
448790.6336551192691382.08409244448793.3765606712691391.68134037
448796.1194662242691401.27858831448798.8981612242691410.79323884
448802.5612057052691417.68184813448808.8913193822691425.39938398
448815.2214330592691433.11691983448821.5515467352691440.83445568
448827.8816604122691448.55199154448834.2117740892691456.26952739
448840.5418877652691463.98706324448846.8720014422691471.70459909
448853.2021151182691479.42213495448859.532228795 2691487.1396708
448865.8623424722691494.85720665448872.192456148 2691502.5747425
448878.5225698252691510.29227835448884.8526835022691518.00981421
448891.1827971782691525.72735006448897.5129108552691533.44488591
448903.8430245322691541.16242176448910.1731382082691548.87995762
448916.5032518852691556.59749347448922.8333655622691564.31502932
448929.1634792382691572.03256517448935.4935929152691579.75010103
448941.8237065922691587.46763688448948.1538202682691595.18517273
448954.4839339452691602.90270858448960.8140476212691610.62024443
448967.1441612982691618.33778029448973.4742749752691626.05531614
448979.8043886512691633.77285199448986.1345023282691641.49038784
448992.464616005 2691649.2079237448998.7983060892691656.86407144
449005.2080067782691663.50173706449012.6437429682691670.16060529
449020.0794791582691676.81947352449027.5152153482691683.47834175
449034.9509515382691690.13720998449042.3866877282691696.79607821
449049.8224239182691703.45494644449057.2581601082691710.11381467
449064.693896298 2691716.7726829449072.1296324892691723.43155113
449079.5653686782691730.09041936449087.0011048692691736.74928759
449094.4368410592691743.40815582449101.8725772492691750.06702405
449109.3083134392691756.72589228449116.7440496292691763.38476051
449124.1797858192691770.04362874449131.6155220092691776.70249697
449139.051258199 2691783.3613652449146.4869943892691790.02023343
449153.9227305792691796.67910166449161.3584667692691803.33796989
449168.7942029592691809.99683812449176.2299391492691816.65570635
449183.6525365692691823.19841475449190.9385959712691828.32148681
449199.6439073132691833.20495415449208.3492186542691838.08842149
449217.0545299952691842.97188882449225.7598413372691847.85535616
449234.465152678 2691852.7388235 449243.170464022691857.62229084
449251.8757753612691862.50575818449260.5810867022691867.38922551
449269.2863980442691872.27269285449277.9917093852691877.15616019
449286.6970207272691882.03962753449295.4006098932691886.91732602
449303.9838453862691891.39381823449312.9670250442691895.74504588
449321.9502047012691900.09627353449330.9333843592691904.44750117
449339.9165640162691908.79872882449348.8997436742691913.14995647
449357.8829233312691917.50118411449366.8661029892691921.85241176
449375.8492826462691926.20363941449384.8324623042691930.55486705
449393.815641961 2691934.9060947449402.7988216192691939.25732235
449411.7820012762691943.60854999449420.7651809342691947.95977764
449429.7483605912691952.31100529449438.7315402492691956.66223293
449447.7147199062691961.01346058449456.6978995642691965.36468823
449465.6810792212691969.71591587449474.7687368382691974.45573441
449483.6822353492691980.49471356449491.4437909992691986.77077544
 449499.205346652691993.04683732  449506.96690232691999.32289919
449514.7284579512692005.59896107449522.4900136022692011.87502295
449530.2515692522692018.15108482449538.013124903 2692024.4271467
449545.7746805532692030.70320857449553.5362362042692036.97927045
449561.2977918552692043.25533233449569.059347505 2692049.5313942
449576.8209031562692055.80745608449584.5824588062692062.08351796
449592.3158333952692068.16116282449600.140056758 2692073.6310262
449608.5536998482692079.00143668449616.9673429382692084.37184716
449625.3809860272692089.74225764449633.7946291172692095.11266813
449642.2082722062692100.48307861449650.6219152962692105.85348909
449659.0355583862692111.22389958449667.4492014752692116.59431006
449675.7917905792692121.74298071449683.4274768982692124.74314749
 449693.185415342692126.84394166449702.9433537822692128.94473583
449712.701292224   2692131.04553449722.4592306662692133.14632417
449732.2171691082692135.24711835 449741.975107552692137.34791252
449751.7330459922692139.44870669449761.4909844342692141.54950086
449771.2489228762692143.65029503449781.0068613182692145.75108921
449224.1237914172691396.21281312449231.5622734182691378.23648162
449216.6853094172691414.18914462449209.2468274162691432.16547612
449201.8083454152691450.14180762449194.3698634152691468.11813912
449186.9313814142691486.09447062449178.5862857232691498.60273392
449164.9238296452691511.40726231449150.3360717312691524.27881341
449135.7483138162691537.15036451449121.1605559022691550.02191561
449106.5727979872691562.89346671449091.9850400732691575.76501781
449077.3972821582691588.63656892449062.8095242442691601.50812002
449048.2217663292691614.37967112449242.6041280662691403.85984897
449250.0426100662691385.88351747449235.1656460652691421.83618047
449227.7271640642691439.81251197449220.2886820642691457.78884348
449212.8502000632691475.76517498449205.4117180632691493.74150648
449192.6999479882691512.77328569449178.1562623872691526.40401942
449163.5685044722691539.27557052449148.9807465582691552.14712162
449134.3929886432691565.01867272449119.8052307292691577.89022382
449105.2174728142691590.76177492  449090.62971492691603.63332602
449076.0419569852691616.50487712449061.4541990712691629.37642822
448741.2316569512691282.01033398448743.9745625042691291.60758192
448746.7174680562691301.20482985448749.4603736082691310.80207779
 448752.203279162691320.39932572448754.9461847122691329.99657366
448757.6890902652691339.59382159448760.4319958172691349.19106953
448763.1749013692691358.78831746448765.917806921 2691368.3855654
448768.6607124742691377.98281333448771.4036180262691387.58006127
448774.146523578 2691397.1773092 448776.889429132691406.77455714
448779.7328075942691416.51068759448787.0975538632691430.36551762
 448793.427667542691438.08305347448799.7577812162691445.80058932
448806.0878948932691453.51812517 448812.418008572691461.23566102
448818.7481222462691468.95319688448825.0782359232691476.67073273
448831.4083495992691484.38826858448837.7384632762691492.10580443
448844.0685769532691499.82334029448850.3986906292691507.54087614
448856.7288043062691515.25841199448863.0589179832691522.97594784
448869.389031659 2691530.6934837448875.7191453362691538.41101955
448882.049259013 2691546.1285554448888.3793726892691553.84609125
448894.709486366 2691561.5636271448901.0396000432691569.28116296
448907.3697137192691576.99869881448913.6998273962691584.71623466
448920.0299410722691592.43377051448926.3600547492691600.15130637
448932.6901684262691607.86884222448939.0202821022691615.58637807
448945.3503957792691623.30391392448951.6805094562691631.02144978
448958.0106231332691638.73898563448964.3407368092691646.45652148
448970.6708504862691654.17405733448977.0009641622691661.89159318
448983.4416808312691669.67711404448991.865610715  2691678.400746
448999.3013469052691685.05961423449006.7370830952691691.71848246
449014.1728192852691698.37735069449021.6085554752691705.03621892
449029.0442916652691711.69508715449036.4800278552691718.35395538
449043.9157640452691725.01282361449051.3515002362691731.67169184
449058.7872364262691738.33056007449066.222972616 2691744.9894283
449073.6587088062691751.64829653449081.0944449962691758.30716476
449088.5301811862691764.96603299449095.9659173762691771.62490122
449103.4016535662691778.28376945449110.8373897562691784.94263768
449118.273125946 2691791.6015059449125.7088621362691798.26037413
449133.1445983262691804.91924236449140.580334517 2691811.5781106
449148.0160707062691818.23697882449155.4518068962691824.89584705
449162.8875430862691831.55471528449170.5461776072691838.30547783
449181.1535764862691845.76434763449189.8588878272691850.64781497
449198.5641991692691855.53128231 449207.269510512691860.41474965
449215.9748218512691865.29821698449224.6801331932691870.18168432
449233.3854445342691875.06515166449242.090755875  2691879.948619
449250.7960672172691884.83208634449259.5013785582691889.71555367
  449268.20668992691894.59902101449276.9120012412691899.48248835
449285.630239951 2691904.3683968449295.2652763122691909.39344471
449304.2484559692691913.74467236449313.231635627    2691918.0959
449322.2148152842691922.44712765449331.197994942 2691926.7983553
  449340.18117462691931.14958294449349.1643542572691935.50081059
449358.1475339142691939.85203824449367.1307135722691944.20326588
449376.1138932292691948.55449353449385.0970728872691952.90572118
449394.0802525442691957.25694882449403.0634322022691961.60817647
449412.0466118592691965.95940412449421.0297915172691970.31063176
449430.0129711742691974.66185941449438.9961508322691979.01308706
449447.979330489 2691983.3643147449456.9625101472691987.71554235
449464.9950752352691991.90496187449471.1068696292691996.04656802
 449478.86842528 2692002.3226299449486.6299809312692008.59869177
449494.3915365812692014.87475365449502.1530922322692021.15081553
449509.914647882 2692027.4268774449517.6762035332692033.70293928
449525.4377591842692039.97900115449533.1993148342692046.25506303
449540.9608704852692052.53112491449548.7224261352692058.80718678
449556.4839817862692065.08324866449564.2455374362692071.35931053
449572.0070930872692077.63537241449580.1774061182692084.05640057
  449589.37934772692090.48947039 449597.792990792692095.85988087
449606.2066338792692101.23029135449614.6202769692692106.60070184
449623.0339200582692111.97111232449631.447563148 2692117.3415228
449639.8612062382692122.71193329449648.2748493272692128.08234377
449656.6884924172692133.45275425449665.5486510492692138.92081796
449679.2181087412692144.29516068449688.9760471832692146.39595485
449698.7339856252692148.49674902449708.4919240672692150.59754319
449718.2498625092692152.69833736449728.0078009512692154.79913154
449737.7657393942692156.89992571449747.5236778352692159.00071988
449757.2816162772692161.10151405449767.0395547192692163.20230822
448770.0767125912691273.76638074448772.8196181432691283.36362867
448775.5625236962691292.96087661448778.3054292482691302.55812454
  448781.04833482691312.15537248448783.7912403522691321.75262041
448786.5341459052691331.34986835448789.2770514572691340.94711628
448792.0199570092691350.54436422448794.7628625612691360.14161215
448797.5057681142691369.73886009448800.2486736662691379.33610802
448802.9915792182691388.93335596 448805.734484772691398.53060389
448808.4808380392691407.93451446448816.6231453032691419.05754923
 448822.953258982691426.77508509448829.2833726562691434.49262094
448835.6134863332691442.21015679 448841.943600012691449.92769264
448848.273713686 2691457.6452285448854.6038273632691465.36276435
448860.933941039 2691473.0803002448867.2640547162691480.79783605
448873.5941683932691488.51537191 448879.924282072691496.23290776
448886.2543957462691503.95044361448892.5845094232691511.66797946
  448898.91462312691519.38551532448905.2447367762691527.10305117
448911.5748504532691534.82058702448917.9049641292691542.53812287
448924.2350778062691550.25565872448930.5651914832691557.97319458
448936.8953051592691565.69073043448943.2254188362691573.40826628
448949.5555325132691581.12580213448955.8856461892691588.84333799
448962.2157598662691596.56087384448968.5458735432691604.27840969
448974.8759872192691611.99594554448981.2061008962691619.71348139
448987.5362145732691627.43101725448993.866328249 2691635.1485531
449000.1964419262691642.86608895449006.4766187182691650.45755014
449011.8792048092691656.05223259   449019.3149412691662.71110082
 449026.750677192691669.36996905 449034.186413382691676.02883728
 449041.622149572691682.68770551 449049.057885762691689.34657374
 449056.493621952691696.00544197 449063.92935814 2691702.6643102
 449071.365094332691709.32317843 449078.800830522691715.98204666
 449086.236566712691722.64091489  449093.67230292691729.29978312
 449101.108039092691735.95865135 449108.543775282691742.61751958
 449115.979511472691749.27638781 449123.415247662691755.93525604
 449130.850983852691762.59412427 449138.28672004 2691769.2529925
 449145.722456232691775.91186073449153.1581924212691782.57072896
 449160.593928612691789.22959719449168.0296648012691795.88846542
449175.4654009912691802.54733365449182.9011371812691809.20620188
 449190.205716052691815.64488322449195.831105714 2691819.6000564
449204.5364170562691824.48352374449213.2417283962691829.36699107
449221.9470397382691834.25045841 449230.652351082691839.13392575
449239.3576624212691844.01739309449248.0629737632691848.90086043
449256.7682851042691853.78432776449265.473596445 2691858.6677951
449274.1789077872691863.55126244449282.8842191282691868.43472978
449291.5895304692691873.31819712449300.2857948642691878.19179063
449308.343129923  2691882.394005449317.3263095812691886.74523264
449326.3094892392691891.09646029449335.2926688962691895.44768794
449344.2758485542691899.79891558449353.2590282112691904.15014323
449362.2422078692691908.50137088449371.2253875262691912.85259852
449380.2085671842691917.20382617449389.1917468412691921.55505382
449398.1749264982691925.90628146449407.1581061562691930.25750911
449416.1412858142691934.60873676449425.124465471 2691938.9599644
449434.1076451282691943.31119205449443.0908247862691947.66241969
449452.0740044442691952.01364734449461.0571841012691956.36487499
449470.0403637592691960.71610264 449479.655567642691965.73112069
449489.9699182082691972.71878634449497.7314738592691978.99484821
 449505.493029512691985.27091009 449513.254585162691991.54697196
449521.0161408112691997.82303384449528.7776964612692004.09909572
449536.5392521122692010.37515759449544.3008077622692016.65121947
449552.0623634132692022.92728135449559.8239190642692029.20334322
449567.585474714 2692035.4794051449575.3470303652692041.75546697
449583.1085860152692048.03152885449590.8701416662692054.30759073
449598.3850470332692060.21354394449605.520411288 2692065.2018041
449613.9340543772692070.57221458449622.3476974672692075.94262507
449630.7613405562692081.31303555449639.1749836462692086.68344603
449647.5886267362692092.05385651449656.002269825  2692097.424267
449664.4159129152692102.79467748449672.8295560042692108.16508796
449680.9133603442692113.15406209449685.5321609762692114.96714089
449695.2900994182692117.06793506 449705.048037862692119.16872924
449714.8059763022692121.26952341449724.5639147452692123.37031758
449734.3218531872692125.47111175449744.0797916282692127.57190592
449753.837730071 2692129.6727001449763.5956685132692131.77349427
449773.3536069552692133.87428844449205.6434547692691388.56577726
449198.2049727682691406.54210876449190.7664907672691424.51844027
449183.3280087672691442.49477177449175.8895267662691460.47110327
449168.4510447662691478.44743477449151.691396903 2691496.4105052
449137.103638989 2691509.2820563449122.515881074 2691522.1536074
 449107.92812316 2691535.0251585449093.3403652452691547.89670961
449078.7526073312691560.76826071449064.1648494162691573.63981181
449049.5770915022691586.51136291449261.0844647142691411.50688483
449253.6459827132691429.48321633449246.2075007132691447.45954783
449238.7690187122691465.43587933449231.3305367122691483.41221083
449223.8920547112691501.38854233449206.8136102532691526.94383746
449191.3886951292691541.40077652449176.8009372142691554.27232762
  449162.21317932691567.14387872449147.6254213852691580.01542983
449133.0376634712691592.88698093449118.4499055562691605.75853203
449103.8621476422691618.63008313449089.2743897272691631.50163423