Plan Title=Test Plan
Geom File=g01
Flow File=u01
