Proj Title=Minimal
Current Plan=p01
Geom File=g01
Unsteady File=u01
Plan File=p01
DSS File=test.dss
