Flow Title=Test Flow
DSS File=test.dss
DSS File=other.dss
